96735
 OpenBabel12092211533D

 27 28  0  0  1  0  0  0  0  0999 V2000
   -7.9439   -0.4106    5.7811 Br  0  0  0  0  0  0  0  0  0  0  0  0
   -6.8058   -2.8690   -1.5196 O   0  0  0  0  0  0  0  0  0  0  0  0
   -7.2359   -4.9148   -0.6320 O   0  0  0  0  0  0  0  0  0  0  0  0
   -6.6974   -5.7660    3.3793 N   0  0  0  0  0  0  0  0  0  0  0  0
   -4.2763   -2.9603   -1.1117 N   0  0  0  0  0  0  0  0  0  0  0  0
   -5.8340   -4.0381    2.2579 C   0  0  0  0  0  0  0  0  0  0  0  0
   -5.1136   -3.2199    1.2245 C   0  0  0  0  0  0  0  0  0  0  0  0
   -6.5466   -3.5416    3.4028 C   0  0  0  0  0  0  0  0  0  0  0  0
   -5.0696   -3.8350   -0.1852 C   0  0  1  0  0  0  0  0  0  0  0  0
   -7.0680   -4.6452    4.0818 C   0  0  0  0  0  0  0  0  0  0  0  0
   -5.9384   -5.4157    2.2977 C   0  0  0  0  0  0  0  0  0  0  0  0
   -6.8065   -2.2555    3.9230 C   0  0  0  0  0  0  0  0  0  0  0  0
   -7.8297   -4.5354    5.2513 C   0  0  0  0  0  0  0  0  0  0  0  0
   -7.5738   -2.1330    5.0880 C   0  0  0  0  0  0  0  0  0  0  0  0
   -6.4879   -3.9605   -0.7692 C   0  0  0  0  0  0  0  0  0  0  0  0
   -8.0764   -3.2534    5.7455 C   0  0  0  0  0  0  0  0  0  0  0  0
   -5.5771   -2.2257    1.1712 H   0  0  0  0  0  0  0  0  0  0  0  0
   -4.0857   -3.0660    1.5821 H   0  0  0  0  0  0  0  0  0  0  0  0
   -4.6026   -4.8260   -0.1872 H   0  0  0  0  0  0  0  0  0  0  0  0
   -5.5756   -6.1828    1.6261 H   0  0  0  0  0  0  0  0  0  0  0  0
   -6.9638   -6.7101    3.6244 H   0  0  0  0  0  0  0  0  0  0  0  0
   -6.4232   -1.3736    3.4210 H   0  0  0  0  0  0  0  0  0  0  0  0
   -8.2233   -5.4115    5.7557 H   0  0  0  0  0  0  0  0  0  0  0  0
   -4.1762   -3.4663   -2.0000 H   0  0  0  0  0  0  0  0  0  0  0  0
   -3.3200   -2.9075   -0.7484 H   0  0  0  0  0  0  0  0  0  0  0  0
   -8.6701   -3.1418    6.6494 H   0  0  0  0  0  0  0  0  0  0  0  0
   -6.0010   -2.2960   -1.5326 H   0  0  0  0  0  0  0  0  0  0  0  0
  1 14  1  0  0  0  0
  2 15  1  0  0  0  0
  2 27  1  0  0  0  0
  3 15  2  0  0  0  0
  4 10  1  0  0  0  0
  4 11  1  0  0  0  0
  4 21  1  0  0  0  0
  5 24  1  0  0  0  0
  5 25  1  0  0  0  0
  6  7  1  0  0  0  0
  6  8  1  0  0  0  0
  6 11  2  0  0  0  0
  7 17  1  0  0  0  0
  7 18  1  0  0  0  0
  8 10  2  0  0  0  0
  8 12  1  0  0  0  0
  9 15  1  0  0  0  0
  9 19  1  1  0  0  0
  9  7  1  0  0  0  0
  9  5  1  0  0  0  0
 10 13  1  0  0  0  0
 11 20  1  0  0  0  0
 12 14  2  0  0  0  0
 12 22  1  0  0  0  0
 13 16  2  0  0  0  0
 13 23  1  0  0  0  0
 14 16  1  0  0  0  0
 16 26  1  0  0  0  0
M  END
